**************************************
*      Model Generated by MODPEX     *
*Copyright(c) Symmetry Design Systems*
*         All Rights Reserved        *
*    UNPUBLISHED LICENSED SOFTWARE   *
*   Contains Proprietary Information *
*      Which is The Property of      *
*     SYMMETRY OR ITS LICENSORS      *
*    Modeling services provided by   *
* Interface Technologies www.i-t.com *
**************************************
.MODEL Q2n5038 npn
+IS=1.48811e-12 BF=98.2047 NF=0.85 VAF=20.3229
+IKF=9.99719 ISE=2.5e-12 NE=3.5625 BR=2.61957
+NR=1.50997 VAR=11.8008 IKR=8.23854 ISC=9.25e-13
+NC=3.78125 RB=5.80602 IRB=0.1 RBM=0.1
+RE=0.000223855 RC=0.11642 XTB=0.100521 XTI=1.21903
+EG=1.13244 CJE=1e-07 VJE=0.4 MJE=0.85
+TF=1e-08 XTF=6.5813 VTF=7.29946 ITF=0.001
+CJC=5e-10 VJC=0.95 MJC=0.23 XCJC=0.792584
+FC=0.8 CJS=0 VJS=0.75 MJS=0.5
+TR=6.47842e-07 PTF=0 KF=0 AF=1
* Model generated on Jan 24, 2004
* Model format: PSpice
